/*--------------------------------*- C++ -*----------------------------------*\
| =========                 |                                                 |
| \\      /  F ield         | OpenFOAM: The Open Source CFD Toolbox           |
|  \\    /   O peration     | Version:  1.6                                   |
|   \\  /    A nd           | Web:      www.OpenFOAM.org                      |
|    \\/     M anipulation  |                                                 |
\*---------------------------------------------------------------------------*/
FoamFile
{
    version     2.0;
    format      ascii;
    class       dictionary;
    location    "system";
    object      controlDict;
}
// * * * * * * * * * * * * * * * * * * * * * * * * * * * * * * * * * * * * * //

  application       ABLSolver;

  libs              ("libuserfiniteVolume.so" "libuserincompressibleLESModels.so");

  startFrom         startTime;

  startTime         0.0;

  stopAt            endTime;

  endTime           10000.0;

  deltaT            0.5;

  writeControl      adjustableRunTime;

  writeInterval     1000.0; 

  purgeWrite        1;

  writeFormat       ascii;

  writePrecision    8;

  writeCompression  compressed;

  timeFormat        general;

  timePrecision     8;

  runTimeModifiable yes;

  adjustTimeStep    yes;

  maxCo             0.75;

  maxDeltaT         25.0;

  functions
  {
  }

// ************************************************************************* //

